* 1N5822 Schottky Diode SPICE Model
.model 1N5822 D(IS=4.342E-05 RS=0.01 N=1.05 TT=0 Cjo=2.58e-10 M=0.3 Vj=0.35
+ Eg=0.69 Xti=0 BV=40 IBV=0.001 ISR=1.0E-5 NR=2.0 IKF=0.3)
